      15
DFTB_results
Au   -1.9243139530  -2.5618336410  -0.8265611941
Au    3.3482902780   1.4146632610  -0.8754926408
Au    0.3545515392  -1.6353410640   0.1832030667
Au   -1.1038066680   1.6210774220   0.6488943221
Au   -2.0359182970  -0.9535740652   1.2468223060
Au    2.4926741920  -0.2871147676   0.9195158188
Au    1.6443190400   2.2522301240   1.0046812220
Au    0.3015566783   0.0506933665   2.3250554790
Au   -2.1116256970   0.9372377292   3.0461438870
Au   -0.1140256585   2.6311768880   2.8967714730
Au    0.0973540046  -1.6249644800  -2.4574218580
Au    2.5111144230  -1.0125069590  -1.6482258270
Au   -2.3915262970  -1.6831700510  -3.2472029360
Au   -1.7640538920   0.0461393636  -1.3578571220
Au    0.7564057685   0.8531571631  -1.1044877370
